IMB01J2 p testes/SSDMT.dss
! SEGMENTOS DE LINHA DE MEDIA TENSAO 
New Line.129693 Phases=3 Bus1=107015M3009.1.2.3 Bus2=106899M3009.1.2.3 Linecode=2250M Length=0.03 units=km
New Line.327199 Phases=3 Bus1=107015M3009.1.2.3 Bus2=106888M3009.1.2.3 Linecode=2250M Length=0.026 units=km
New Line.129337 Phases=3 Bus1=106921M3009.1.2.3 Bus2=106933M3009.1.2.3 Linecode=2250M Length=0.012 units=km
New Line.327150 Phases=3 Bus1=107153M3009.1.2.3 Bus2=107145M3009.1.2.3 Linecode=2250M Length=0.041 units=km
New Line.129785 Phases=3 Bus1=107021M3009.1.2.3 Bus2=107030M3009.1.2.3 Linecode=2250M Length=0.04 units=km
New Line.704744 Phases=3 Bus1=107061M3009.1.2.3 Bus2=107069M3009.1.2.3 Linecode=2250M Length=0.019 units=km
New Line.129349 Phases=3 Bus1=106933M3009.1.2.3 Bus2=106813M3009.1.2.3 Linecode=2250M Length=0.025 units=km
New Line.129867 Phases=3 Bus1=107053M3009.1.2.3 Bus2=107061M3009.1.2.3 Linecode=2250M Length=0.03 units=km
New Line.255814 Phases=3 Bus1=106813M3009.1.2.3 Bus2=106840M3009.1.2.3 Linecode=2250M Length=0.021 units=km
New Line.129756 Phases=3 Bus1=107154M3009.1.2.3 Bus2=107156M3009.1.2.3 Linecode=2250M Length=0.026 units=km
New Line.129318 Phases=3 Bus1=106899M3009.1.2.3 Bus2=106921M3009.1.2.3 Linecode=2250M Length=0.027 units=km
New Line.327144 Phases=3 Bus1=107080M3009.1.2.3 Bus2=107044M3009.1.2.3 Linecode=2250M Length=0.05 units=km
New Line.129813 Phases=3 Bus1=107034M3009.1.2.3 Bus2=107039M3009.1.2.3 Linecode=2250M Length=0.029 units=km
New Line.327153 Phases=3 Bus1=107044M3009.1.2.3 Bus2=107023M3009.1.2.3 Linecode=2250M Length=0.034 units=km
New Line.129769 Phases=3 Bus1=107156M3009.1.2.3 Bus2=107021M3009.1.2.3 Linecode=2250M Length=0.044 units=km
New Line.327151 Phases=3 Bus1=107023M3009.1.2.3 Bus2=107153M3009.1.2.3 Linecode=2250M Length=0.027 units=km
New Line.129847 Phases=3 Bus1=107039M3009.1.2.3 Bus2=107053M3009.1.2.3 Linecode=2250M Length=0.037 units=km
New Line.129790 Phases=3 Bus1=107030M3009.1.2.3 Bus2=107034M3009.1.2.3 Linecode=2250M Length=0.026 units=km
New Line.255820 Phases=3 Bus1=107145M3009.1.2.3 Bus2=107135M3009.1.2.3 Linecode=2250M Length=0.035 units=km
New Line.129676 Phases=3 Bus1=107008M3009.1.2.3 Bus2=107015M3009.1.2.3 Linecode=2250M Length=0.025 units=km
New Line.129843 Phases=3 Bus1=107036M3009.1.2.3 Bus2=107050M3009.1.2.3 Linecode=530M Length=0.017 units=km
New Line.129798 Phases=3 Bus1=107154M3009.1.2.3 Bus2=107036M3009.1.2.3 Linecode=530M Length=0.039 units=km
New Line.4085711 Phases=3 Bus1=106991M3009.1.2.3 Bus2=107003M3009.1.2.3 Linecode=203M Length=0.032 units=km
New Line.11985770 Phases=3 Bus1=107004M3009.1.2.3 Bus2=13155502M3009.1.2.3 Linecode=203M Length=0.008 units=km
New Line.11985769 Phases=3 Bus1=13155502M3009.1.2.3 Bus2=13155501M3009.1.2.3 Linecode=203M Length=0.019 units=km
New Line.129588 Phases=3 Bus1=106974M3009.1.2.3 Bus2=106981M3009.1.2.3 Linecode=203M Length=0.021 units=km
New Line.11756958 Phases=3 Bus1=12998985M3009.1.2.3 Bus2=12998983M3009.1.2.3 Linecode=203M Length=0.019 units=km
New Line.10659782 Phases=3 Bus1=12224058M3009.1.2.3 Bus2=107084M3009.1.2.3 Linecode=203M Length=0.016 units=km
New Line.10670908 Phases=3 Bus1=107092M3009.1.2.3 Bus2=12232202M3009.1.2.3 Linecode=203M Length=0.017 units=km
New Line.10659783 Phases=3 Bus1=12224058M3009.1.2.3 Bus2=106959M3009.1.2.3 Linecode=203M Length=0.021 units=km
New Line.10811872 Phases=3 Bus1=107092M3009.1.2.3 Bus2=12333925M3009.1.2.3 Linecode=203M Length=0.01 units=km
New Line.129910 Phases=3 Bus1=107052M3009.1.2.3 Bus2=107081M3009.1.2.3 Linecode=203M Length=0.032 units=km
New Line.11751968 Phases=3 Bus1=12995423M3009.1.2.3 Bus2=12995422M3009.1.2.3 Linecode=203M Length=0.012 units=km
New Line.10944882 Phases=3 Bus1=107111M3009.1.2.3 Bus2=12428741M3009.1.2.3 Linecode=203M Length=0.015 units=km
New Line.11092753 Phases=3 Bus1=107223M3009.1.2.3 Bus2=107219M3009.1.2.3 Linecode=203M Length=0.021 units=km
New Line.10659781 Phases=3 Bus1=107084M3009.1.2.3 Bus2=107088M3009.1.2.3 Linecode=203M Length=0.018 units=km
New Line.10811871 Phases=3 Bus1=12333925M3009.1.2.3 Bus2=9726976M3009.1.2.3 Linecode=203M Length=0.018 units=km
New Line.11751969 Phases=3 Bus1=12995424M3009.1.2.3 Bus2=12995423M3009.1.2.3 Linecode=203M Length=0.019 units=km
New Line.130072 Phases=3 Bus1=107129M3009.1.2.3 Bus2=107111M3009.1.2.3 Linecode=203M Length=0.027 units=km
New Line.11092754 Phases=3 Bus1=107094M3009.1.2.3 Bus2=107223M3009.1.2.3 Linecode=203M Length=0.015 units=km
New Line.11489977 Phases=3 Bus1=12813731M3009.1.2.3 Bus2=107129M3009.1.2.3 Linecode=203M Length=0.014 units=km
New Line.130108 Phases=3 Bus1=107136M3009.1.2.3 Bus2=12813731M3009.1.2.3 Linecode=203M Length=0.01 units=km
New Line.129721 Phases=3 Bus1=107143M3009.1.2.3 Bus2=12813732M3009.1.2.3 Linecode=203M Length=0.023 units=km
New Line.11092756 Phases=3 Bus1=12428741M3009.1.2.3 Bus2=107103M3009.1.2.3 Linecode=203M Length=0.008 units=km
New Line.11756957 Phases=3 Bus1=12998983M3009.1.2.3 Bus2=12998984M3009.1.2.3 Linecode=203M Length=0.017 units=km
New Line.129387 Phases=3 Bus1=106845M3009.1.2.3 Bus2=106867M3009.1.2.3 Linecode=720M Length=0.013 units=km
New Line.585867 Phases=3 Bus1=504585M3009.1.2.3 Bus2=107016M3009.1.2.3 Linecode=720M Length=0.013 units=km
New Line.129466 Phases=3 Bus1=106794M3009.1.2.3 Bus2=103385M3009.1.2.3 Linecode=720M Length=0.006 units=km
New Line.129462 Phases=3 Bus1=106792M3009.1.2.3 Bus2=106794M3009.1.2.3 Linecode=720M Length=0.013 units=km
New Line.129568 Phases=3 Bus1=106959M3009.1.2.3 Bus2=106974M3009.1.2.3 Linecode=203M Length=0.029 units=km
New Line.11751967 Phases=3 Bus1=12995422M3009.1.2.3 Bus2=12998985M3009.1.2.3 Linecode=203M Length=0.032 units=km
New Line.11489979 Phases=3 Bus1=12184083M3009.1.2.3 Bus2=107143M3009.1.2.3 Linecode=203M Length=0.021 units=km
New Line.4085710 Phases=3 Bus1=106981M3009.1.2.3 Bus2=106991M3009.1.2.3 Linecode=203M Length=0.03 units=km
New Line.11985768 Phases=3 Bus1=13155501M3009.1.2.3 Bus2=13155500M3009.1.2.3 Linecode=203M Length=0.006 units=km
New Line.10659780 Phases=3 Bus1=107088M3009.1.2.3 Bus2=106953M3009.1.2.3 Linecode=203M Length=0.029 units=km
New Line.11092752 Phases=3 Bus1=107219M3009.1.2.3 Bus2=12533880M3009.1.2.3 Linecode=203M Length=0.028 units=km
New Line.11092751 Phases=3 Bus1=107219M3009.1.2.3 Bus2=12533879M3009.1.2.3 Linecode=203M Length=0.008 units=km
New Line.10659784 Phases=3 Bus1=107081M3009.1.2.3 Bus2=12224058M3009.1.2.3 Linecode=203M Length=0.014 units=km
New Line.129741 Phases=3 Bus1=107154M3009.1.2.3 Bus2=12184083M3009.1.2.3 Linecode=203M Length=0.021 units=km
New Line.129850 Phases=3 Bus1=107050M3009.1.2.3 Bus2=107052M3009.1.2.3 Linecode=203M Length=0.014 units=km
New Line.11092755 Phases=3 Bus1=107103M3009.1.2.3 Bus2=107094M3009.1.2.3 Linecode=203M Length=0.011 units=km
New Line.555629 Phases=3 Bus1=106923M3009.1.2.3 Bus2=106905M3009.1.2.3 Linecode=720M Length=0.032 units=km
New Line.11489978 Phases=3 Bus1=12813732M3009.1.2.3 Bus2=107136M3009.1.2.3 Linecode=203M Length=0.017 units=km
New Line.129395 Phases=3 Bus1=106867M3009.1.2.3 Bus2=106746M3009.1.2.3 Linecode=720M Length=0.028 units=km
New Line.4085712 Phases=3 Bus1=107003M3009.1.2.3 Bus2=104787922M3009.1.2.3 Linecode=203M Length=0.022 units=km
New Line.129454 Phases=3 Bus1=106781M3009.1.2.3 Bus2=106792M3009.1.2.3 Linecode=720M Length=0.032 units=km
New Line.129428 Phases=3 Bus1=106758M3009.1.2.3 Bus2=106768M3009.1.2.3 Linecode=720M Length=0.025 units=km
New Line.585866 Phases=3 Bus1=107004M3009.1.2.3 Bus2=504585M3009.1.2.3 Linecode=720M Length=0.015 units=km
New Line.129345 Phases=3 Bus1=106929M3009.1.2.3 Bus2=106944M3009.1.2.3 Linecode=720M Length=0.028 units=km
New Line.129510 Phases=3 Bus1=107080M3009.1.2.3 Bus2=106954M3009.1.2.3 Linecode=720M Length=0.033 units=km
New Line.129643 Phases=3 Bus1=106982M3009.1.2.3 Bus2=106996M3009.1.2.3 Linecode=720M Length=0.038 units=km
New Line.555627 Phases=3 Bus1=106929M3009.1.2.3 Bus2=106923M3009.1.2.3 Linecode=720M Length=0.013 units=km
New Line.129368 Phases=3 Bus1=106825M3009.1.2.3 Bus2=106845M3009.1.2.3 Linecode=720M Length=0.022 units=km
New Line.538401 Phases=3 Bus1=107081M3009.1.2.3 Bus2=458904M3009.1.2.3 Linecode=720M Length=0.013 units=km
New Line.129593 Phases=3 Bus1=106977M3009.1.2.3 Bus2=106982M3009.1.2.3 Linecode=720M Length=0.025 units=km
New Line.129295 Phases=3 Bus1=106897M3009.1.2.3 Bus2=106909M3009.1.2.3 Linecode=720M Length=0.024 units=km
New Line.129576 Phases=3 Bus1=106963M3009.1.2.3 Bus2=106977M3009.1.2.3 Linecode=720M Length=0.037 units=km
New Line.129356 Phases=3 Bus1=106944M3009.1.2.3 Bus2=106825M3009.1.2.3 Linecode=720M Length=0.023 units=km
New Line.129689 Phases=3 Bus1=107016M3009.1.2.3 Bus2=106897M3009.1.2.3 Linecode=720M Length=0.031 units=km
New Line.129411 Phases=3 Bus1=106746M3009.1.2.3 Bus2=106758M3009.1.2.3 Linecode=720M Length=0.022 units=km
New Line.129530 Phases=3 Bus1=106954M3009.1.2.3 Bus2=106963M3009.1.2.3 Linecode=720M Length=0.024 units=km
New Line.129435 Phases=3 Bus1=106768M3009.1.2.3 Bus2=106781M3009.1.2.3 Linecode=720M Length=0.026 units=km
New Line.129333 Phases=3 Bus1=106909M3009.1.2.3 Bus2=106929M3009.1.2.3 Linecode=720M Length=0.029 units=km
New Line.129898 Phases=3 Bus1=107050M3009.1.2.3 Bus2=107080M3009.1.2.3 Linecode=720M Length=0.033 units=km
New Line.129640 Phases=3 Bus1=106996M3009.1.2.3 Bus2=103376M3009.1.2.3 Linecode=720M Length=0.018 units=km
New Line.129659 Phases=3 Bus1=106996M3009.1.2.3 Bus2=107004M3009.1.2.3 Linecode=720M Length=0.022 units=km
New Line.130154 Phases=3 Bus1=107236M3009.1.2.3 Bus2=107253M3009.1.2.3 Linecode=720M Length=0.027 units=km
New Line.708192 Phases=3 Bus1=106909M3009.1.2.3 Bus2=694708M3009.1.2.3 Linecode=720M Length=0.006 units=km
New Line.11357554 Phases=3 Bus1=IMB01J2.1.2.3 Bus2=12721935M3009.1.2.3 Linecode=113330M Length=0.006 units=km
New Line.11350948 Phases=3 Bus1=12716993M3009.1.2.3 Bus2=12716997M3009.1.2.3 Linecode=113330M Length=0.009 units=km
New Line.11360128 Phases=3 Bus1=12716997M3009.1.2.3 Bus2=12721935M3009.1.2.3 Linecode=113330M Length=0.014 units=km
New Line.11350947 Phases=3 Bus1=12675646M3009.1.2.3 Bus2=12716993M3009.1.2.3 Linecode=113330M Length=0.015 units=km
New Line.11288667 Phases=3 Bus1=107094M3009.1.2.3 Bus2=12675087M3009.1.2.3 Linecode=1824M Length=0.01 units=km
New Line.130064 Phases=3 Bus1=107107M3009.1.2.3 Bus2=107125M3009.1.2.3 Linecode=161M Length=0.029 units=km
New Line.130248 Phases=3 Bus1=107276M3009.1.2.3 Bus2=107290M3009.1.2.3 Linecode=161M Length=0.029 units=km
New Line.619483 Phases=3 Bus1=107212M3009.1.2.3 Bus2=107217M3009.1.2.3 Linecode=161M Length=0.027 units=km
New Line.129608 Phases=3 Bus1=106985M3009.1.2.3 Bus2=106986M3009.1.2.3 Linecode=161M Length=0.005 units=km
New Line.129973 Phases=3 Bus1=107195M3009.1.2.3 Bus2=107212M3009.1.2.3 Linecode=161M Length=0.037 units=km
New Line.495701 Phases=3 Bus1=107125M3009.1.2.3 Bus2=107118M3009.1.2.3 Linecode=161M Length=0.021 units=km
New Line.130186 Phases=3 Bus1=107253M3009.1.2.3 Bus2=107267M3009.1.2.3 Linecode=161M Length=0.024 units=km
New Line.130201 Phases=3 Bus1=107253M3009.1.2.3 Bus2=107276M3009.1.2.3 Linecode=161M Length=0.033 units=km
New Line.504818 Phases=3 Bus1=103375M3009.1.2.3 Bus2=106985M3009.1.2.3 Linecode=161M Length=0.018 units=km
New Line.129700 Phases=3 Bus1=107125M3009.1.2.3 Bus2=107139M3009.1.2.3 Linecode=161M Length=0.037 units=km
New Line.130010 Phases=3 Bus1=107212M3009.1.2.3 Bus2=107090M3009.1.2.3 Linecode=161M Length=0.027 units=km
New Line.129685 Phases=3 Bus1=106895M3009.1.2.3 Bus2=107010M3009.1.2.3 Linecode=161M Length=0.03 units=km
New Line.619484 Phases=3 Bus1=107217M3009.1.2.3 Bus2=107221M3009.1.2.3 Linecode=161M Length=0.023 units=km
New Line.619485 Phases=3 Bus1=107221M3009.1.2.3 Bus2=107224M3009.1.2.3 Linecode=161M Length=0.021 units=km
New Line.493776 Phases=3 Bus1=107118M3009.1.2.3 Bus2=107119M3009.1.2.3 Linecode=161M Length=0.014 units=km
New Line.493777 Phases=3 Bus1=107119M3009.1.2.3 Bus2=107122M3009.1.2.3 Linecode=161M Length=0.023 units=km
New Line.2484871 Phases=3 Bus1=8094211M3009.1.2.3 Bus2=107287M3009.1.2.3 Linecode=161M Length=0.023 units=km
New Line.129656 Phases=3 Bus1=107002M3009.1.2.3 Bus2=107000M3009.1.2.3 Linecode=161M Length=0.017 units=km
New Line.129514 Phases=3 Bus1=106954M3009.1.2.3 Bus2=107071M3009.1.2.3 Linecode=161M Length=0.046 units=km
New Line.10571048 Phases=3 Bus1=12155417M3009.1.2.3 Bus2=12155419M3009.1.2.3 Linecode=161M Length=0.006 units=km
New Line.493779 Phases=3 Bus1=107127M3009.1.2.3 Bus2=107132M3009.1.2.3 Linecode=161M Length=0.025 units=km
New Line.129879 Phases=3 Bus1=107067M3009.1.2.3 Bus2=107057M3009.1.2.3 Linecode=161M Length=0.011 units=km
New Line.130264 Phases=3 Bus1=107287M3009.1.2.3 Bus2=107162M3009.1.2.3 Linecode=161M Length=0.042 units=km
New Line.10670906 Phases=3 Bus1=12232202M3009.1.2.3 Bus2=12232201M3009.1.2.3 Linecode=161M Length=0.003 units=km
New Line.130318 Phases=3 Bus1=107178M3009.1.2.3 Bus2=107188M3009.1.2.3 Linecode=161M Length=0.048 units=km
New Line.129284 Phases=3 Bus1=106905M3009.1.2.3 Bus2=106895M3009.1.2.3 Linecode=161M Length=0.031 units=km
New Line.11111284 Phases=3 Bus1=107008M3009.1.2.3 Bus2=12546355M3009.1.2.3 Linecode=161M Length=0.004 units=km
New Line.129624 Phases=3 Bus1=106990M3009.1.2.3 Bus2=103375M3009.1.2.3 Linecode=161M Length=0.019 units=km
New Line.11289475 Phases=3 Bus1=12675649M3009.1.2.3 Bus2=107107M3009.1.2.3 Linecode=161M Length=0.013 units=km
New Line.129745 Phases=3 Bus1=107146M3009.1.2.3 Bus2=107154M3009.1.2.3 Linecode=161M Length=0.034 units=km
New Line.10571047 Phases=3 Bus1=107290M3009.1.2.3 Bus2=12155417M3009.1.2.3 Linecode=161M Length=0.007 units=km
New Line.130280 Phases=3 Bus1=107290M3009.1.2.3 Bus2=107174M3009.1.2.3 Linecode=161M Length=0.033 units=km
New Line.2484870 Phases=3 Bus1=107267M3009.1.2.3 Bus2=8094211M3009.1.2.3 Linecode=161M Length=0.023 units=km
New Line.327155 Phases=3 Bus1=107071M3009.1.2.3 Bus2=107067M3009.1.2.3 Linecode=161M Length=0.012 units=km
New Line.130033 Phases=3 Bus1=107090M3009.1.2.3 Bus2=12675649M3009.1.2.3 Linecode=161M Length=0.018 units=km
New Line.129604 Phases=3 Bus1=106986M3009.1.2.3 Bus2=106980M3009.1.2.3 Linecode=161M Length=0.038 units=km
New Line.129724 Phases=3 Bus1=107139M3009.1.2.3 Bus2=107146M3009.1.2.3 Linecode=161M Length=0.026 units=km
New Line.129925 Phases=3 Bus1=107174M3009.1.2.3 Bus2=107195M3009.1.2.3 Linecode=161M Length=0.04 units=km
New Line.129651 Phases=3 Bus1=107000M3009.1.2.3 Bus2=106997M3009.1.2.3 Linecode=161M Length=0.025 units=km
New Line.130287 Phases=3 Bus1=107162M3009.1.2.3 Bus2=107178M3009.1.2.3 Linecode=161M Length=0.045 units=km
New Line.129672 Phases=3 Bus1=107010M3009.1.2.3 Bus2=107002M3009.1.2.3 Linecode=161M Length=0.014 units=km
New Line.493778 Phases=3 Bus1=107122M3009.1.2.3 Bus2=107127M3009.1.2.3 Linecode=161M Length=0.015 units=km
New Line.129647 Phases=3 Bus1=106997M3009.1.2.3 Bus2=106990M3009.1.2.3 Linecode=161M Length=0.036 units=km
New Line.10937718 Phases=3 Bus1=106963M3009.1.2.3 Bus2=12423346M3009.1.2.3 Linecode=161M Length=0.006 units=km
New Line.4066768 Phases=3 Bus1=107026M3009.1.2.3 Bus2=107150M3009.1.2.3 Linecode=908M Length=0.027 units=km
New Line.10670907 Phases=3 Bus1=12232202M3009.1.2.3 Bus2=107224M3009.1.2.3 Linecode=908M Length=0.003 units=km
New Line.4066763 Phases=3 Bus1=107069M3009.1.2.3 Bus2=107082M3009.1.2.3 Linecode=908M Length=0.03 units=km
New Line.4066766 Phases=3 Bus1=107072M3009.1.2.3 Bus2=107041M3009.1.2.3 Linecode=908M Length=0.039 units=km
New Line.4066764 Phases=3 Bus1=107082M3009.1.2.3 Bus2=107072M3009.1.2.3 Linecode=908M Length=0.008 units=km
New Line.4066767 Phases=3 Bus1=107041M3009.1.2.3 Bus2=107026M3009.1.2.3 Linecode=908M Length=0.025 units=km
New Line.11285178 Phases=3 Bus1=12672655M3009.1.2.3 Bus2=12672654M3009.1.2.3 Linecode=128M Length=0.027 units=km
New Line.11285174 Phases=3 Bus1=107273M3009.1.2.3 Bus2=107289M3009.1.2.3 Linecode=128M Length=0.038 units=km
New Line.11289471 Phases=3 Bus1=12672656M3009.1.2.3 Bus2=12675648M3009.1.2.3 Linecode=128M Length=0.021 units=km
New Line.11285179 Phases=3 Bus1=12672656M3009.1.2.3 Bus2=12672655M3009.1.2.3 Linecode=128M Length=0.036 units=km
New Line.11285176 Phases=3 Bus1=12672653M3009.1.2.3 Bus2=107260M3009.1.2.3 Linecode=128M Length=0.032 units=km
New Line.11289470 Phases=3 Bus1=12675648M3009.1.2.3 Bus2=12675646M3009.1.2.3 Linecode=128M Length=0.016 units=km
New Line.11285170 Phases=3 Bus1=107201M3009.1.2.3 Bus2=12672652M3009.1.2.3 Linecode=128M Length=0.032 units=km
New Line.11285171 Phases=3 Bus1=107191M3009.1.2.3 Bus2=12995424M3009.1.2.3 Linecode=128M Length=0.015 units=km
New Line.11285169 Phases=3 Bus1=104684772M3009.1.2.3 Bus2=12672652M3009.1.2.3 Linecode=128M Length=0.044 units=km
New Line.11751970 Phases=3 Bus1=12995424M3009.1.2.3 Bus2=107201M3009.1.2.3 Linecode=128M Length=0.022 units=km
New Line.11285172 Phases=3 Bus1=107169M3009.1.2.3 Bus2=107191M3009.1.2.3 Linecode=128M Length=0.04 units=km
New Line.11289476 Phases=3 Bus1=104684772M3009.1.2.3 Bus2=107107M3009.1.2.3 Linecode=128M Length=0.015 units=km
New Line.11285173 Phases=3 Bus1=107289M3009.1.2.3 Bus2=107169M3009.1.2.3 Linecode=128M Length=0.026 units=km
New Line.11285177 Phases=3 Bus1=12672654M3009.1.2.3 Bus2=12672653M3009.1.2.3 Linecode=128M Length=0.027 units=km
New Line.11285175 Phases=3 Bus1=107260M3009.1.2.3 Bus2=107273M3009.1.2.3 Linecode=128M Length=0.03 units=km
New Line.585884 Phases=3 Bus1=504585M3009.1.2.3 Bus2=504593M3009.1.2.3 Linecode=5217M Length=0.005 units=km
New Line.130322 Phases=3 Bus1=107188M3009.1.2.3 Bus2=107187M3009.1.2.3 Linecode=5217M Length=0.005 units=km
New Line.708193 Phases=3 Bus1=694708M3009.1.2.3 Bus2=694709M3009.1.2.3 Linecode=5217M Length=0.009 units=km
New Line.656382 Phases=3 Bus1=107135M3009.1.2.3 Bus2=600471M3009.1.2.3 Linecode=5217M Length=0.003 units=km
New Line.4153688 Phases=3 Bus1=107267M3009.1.2.3 Bus2=104831981M3009.1.2.3 Linecode=5217M Length=0.006 units=km
New Line.12211586 Phases=3 Bus1=13145600M3009.1.2.3 Bus2=107008M3009.1.2.3 Linecode=131M Length=0.013 units=km
New Line.129667 Phases=3 Bus1=106996M3009.1.2.3 Bus2=13145600M3009.1.2.3 Linecode=131M Length=0.013 units=km
