IMB01J2 p testes/PVSystems.dss
New PVSystem.PV0 phases=1 Bus1=106746b1f58371.1.0 kV=0.127 kVA=1.87 Pmpp=1.87 conn=wye PF = 1 %cutin = 0.00005 %cutout = 0.00005 effcurve = Myeff P-TCurve = MyPvsT Daily = MyIrrad TDaily = Mytemp 
New PVSystem.PV1 phases=1 Bus1=106840b1f18466.1.0 kV=0.127 kVA=2.28 Pmpp=2.28 conn=wye PF = 1 %cutin = 0.00005 %cutout = 0.00005 effcurve = Myeff P-TCurve = MyPvsT Daily = MyIrrad TDaily = Mytemp 
New PVSystem.PV2 phases=1 Bus1=107023b1f37218.3.0 kV=0.127 kVA=2.95 Pmpp=2.95 conn=wye PF = 1 %cutin = 0.00005 %cutout = 0.00005 effcurve = Myeff P-TCurve = MyPvsT Daily = MyIrrad TDaily = Mytemp 
New PVSystem.PV3 phases=2 Bus1=12232201b0f48507.3.1.0 kV=0.22 kVA=2.37 Pmpp=2.37 conn=wye PF = 1 %cutin = 0.00005 %cutout = 0.00005 effcurve = Myeff P-TCurve = MyPvsT Daily = MyIrrad TDaily = Mytemp 
New PVSystem.PV4 phases=1 Bus1=106933b1f26045.1.0 kV=0.127 kVA=2.37 Pmpp=2.37 conn=wye PF = 1 %cutin = 0.00005 %cutout = 0.00005 effcurve = Myeff P-TCurve = MyPvsT Daily = MyIrrad TDaily = Mytemp 
New PVSystem.PV5 phases=2 Bus1=107224b1f26939.1.2.0 kV=0.22 kVA=1.48 Pmpp=1.48 conn=wye PF = 1 %cutin = 0.00005 %cutout = 0.00005 effcurve = Myeff P-TCurve = MyPvsT Daily = MyIrrad TDaily = Mytemp 
New PVSystem.PV6 phases=2 Bus1=12428741b1f23062.3.1.0 kV=0.22 kVA=2.37 Pmpp=2.37 conn=wye PF = 1 %cutin = 0.00005 %cutout = 0.00005 effcurve = Myeff P-TCurve = MyPvsT Daily = MyIrrad TDaily = Mytemp 
New PVSystem.PV7 phases=1 Bus1=600471b0f24167.1.0 kV=0.22 kVA=2.95 Pmpp=2.95 conn=wye PF = 1 %cutin = 0.00005 %cutout = 0.00005 effcurve = Myeff P-TCurve = MyPvsT Daily = MyIrrad TDaily = Mytemp 
New PVSystem.PV8 phases=2 Bus1=12998983b1f58005.3.1.0 kV=0.22 kVA=2.24 Pmpp=2.24 conn=wye PF = 1 %cutin = 0.00005 %cutout = 0.00005 effcurve = Myeff P-TCurve = MyPvsT Daily = MyIrrad TDaily = Mytemp 
New PVSystem.PV9 phases=1 Bus1=107069b1f21940.1.0 kV=0.127 kVA=2.95 Pmpp=2.95 conn=wye PF = 1 %cutin = 0.00005 %cutout = 0.00005 effcurve = Myeff P-TCurve = MyPvsT Daily = MyIrrad TDaily = Mytemp 
New PVSystem.PV10 phases=2 Bus1=12428741b1f23062.2.3.0 kV=0.22 kVA=2.28 Pmpp=2.28 conn=wye PF = 1 %cutin = 0.00005 %cutout = 0.00005 effcurve = Myeff P-TCurve = MyPvsT Daily = MyIrrad TDaily = Mytemp 
New PVSystem.PV11 phases=1 Bus1=106933b1f26045.2.0 kV=0.127 kVA=2.37 Pmpp=2.37 conn=wye PF = 1 %cutin = 0.00005 %cutout = 0.00005 effcurve = Myeff P-TCurve = MyPvsT Daily = MyIrrad TDaily = Mytemp 
New PVSystem.PV12 phases=1 Bus1=103375b1f18046.1.0 kV=0.127 kVA=2.95 Pmpp=2.95 conn=wye PF = 1 %cutin = 0.00005 %cutout = 0.00005 effcurve = Myeff P-TCurve = MyPvsT Daily = MyIrrad TDaily = Mytemp 
New PVSystem.PV13 phases=1 Bus1=107069b1f21940.1.0 kV=0.127 kVA=2.95 Pmpp=2.95 conn=wye PF = 1 %cutin = 0.00005 %cutout = 0.00005 effcurve = Myeff P-TCurve = MyPvsT Daily = MyIrrad TDaily = Mytemp 
New PVSystem.PV14 phases=1 Bus1=106888b1f23277.2.0 kV=0.127 kVA=1.86 Pmpp=1.86 conn=wye PF = 1 %cutin = 0.00005 %cutout = 0.00005 effcurve = Myeff P-TCurve = MyPvsT Daily = MyIrrad TDaily = Mytemp 
New PVSystem.PV15 phases=2 Bus1=12998984b1f58003.3.1.0 kV=0.22 kVA=2.28 Pmpp=2.28 conn=wye PF = 1 %cutin = 0.00005 %cutout = 0.00005 effcurve = Myeff P-TCurve = MyPvsT Daily = MyIrrad TDaily = Mytemp 
New PVSystem.PV16 phases=1 Bus1=106825b1f21415.2.0 kV=0.127 kVA=2.28 Pmpp=2.28 conn=wye PF = 1 %cutin = 0.00005 %cutout = 0.00005 effcurve = Myeff P-TCurve = MyPvsT Daily = MyIrrad TDaily = Mytemp 
New PVSystem.PV17 phases=1 Bus1=107002b1f21267.3.0 kV=0.127 kVA=1.87 Pmpp=1.87 conn=wye PF = 1 %cutin = 0.00005 %cutout = 0.00005 effcurve = Myeff P-TCurve = MyPvsT Daily = MyIrrad TDaily = Mytemp 
New PVSystem.PV18 phases=1 Bus1=600471b0f24167.1.0 kV=0.22 kVA=1.87 Pmpp=1.87 conn=wye PF = 1 %cutin = 0.00005 %cutout = 0.00005 effcurve = Myeff P-TCurve = MyPvsT Daily = MyIrrad TDaily = Mytemp 
New PVSystem.PV19 phases=1 Bus1=600471b0f24167.1.0 kV=0.127 kVA=2.0 Pmpp=2.0 conn=wye PF = 1 %cutin = 0.00005 %cutout = 0.00005 effcurve = Myeff P-TCurve = MyPvsT Daily = MyIrrad TDaily = Mytemp 
New PVSystem.PV20 phases=1 Bus1=106888b1f23277.2.0 kV=0.127 kVA=2.95 Pmpp=2.95 conn=wye PF = 1 %cutin = 0.00005 %cutout = 0.00005 effcurve = Myeff P-TCurve = MyPvsT Daily = MyIrrad TDaily = Mytemp 
New PVSystem.PV21 phases=1 Bus1=107071b1f13822.2.0 kV=0.127 kVA=2.37 Pmpp=2.37 conn=wye PF = 1 %cutin = 0.00005 %cutout = 0.00005 effcurve = Myeff P-TCurve = MyPvsT Daily = MyIrrad TDaily = Mytemp 
New PVSystem.PV22 phases=2 Bus1=12232201b0f48507.3.1.0 kV=0.22 kVA=2.37 Pmpp=2.37 conn=wye PF = 1 %cutin = 0.00005 %cutout = 0.00005 effcurve = Myeff P-TCurve = MyPvsT Daily = MyIrrad TDaily = Mytemp 
New PVSystem.PV23 phases=2 Bus1=12232201b0f48507.1.2.0 kV=0.22 kVA=2.28 Pmpp=2.28 conn=wye PF = 1 %cutin = 0.00005 %cutout = 0.00005 effcurve = Myeff P-TCurve = MyPvsT Daily = MyIrrad TDaily = Mytemp 
New PVSystem.PV24 phases=2 Bus1=600471b0f24167.1.2.0 kV=0.22 kVA=2.95 Pmpp=2.95 conn=wye PF = 1 %cutin = 0.00005 %cutout = 0.00005 effcurve = Myeff P-TCurve = MyPvsT Daily = MyIrrad TDaily = Mytemp 
New PVSystem.PV25 phases=1 Bus1=106825b1f21415.1.0 kV=0.127 kVA=1.87 Pmpp=1.87 conn=wye PF = 1 %cutin = 0.00005 %cutout = 0.00005 effcurve = Myeff P-TCurve = MyPvsT Daily = MyIrrad TDaily = Mytemp 
New PVSystem.PV26 phases=2 Bus1=600471b0f24167.3.1.0 kV=0.22 kVA=2.95 Pmpp=2.95 conn=wye PF = 1 %cutin = 0.00005 %cutout = 0.00005 effcurve = Myeff P-TCurve = MyPvsT Daily = MyIrrad TDaily = Mytemp 
New PVSystem.PV27 phases=1 Bus1=106933b1f26045.1.0 kV=0.127 kVA=2.09 Pmpp=2.09 conn=wye PF = 1 %cutin = 0.00005 %cutout = 0.00005 effcurve = Myeff P-TCurve = MyPvsT Daily = MyIrrad TDaily = Mytemp 
New PVSystem.PV28 phases=2 Bus1=600471b0f24167.3.1.0 kV=0.22 kVA=2.09 Pmpp=2.09 conn=wye PF = 1 %cutin = 0.00005 %cutout = 0.00005 effcurve = Myeff P-TCurve = MyPvsT Daily = MyIrrad TDaily = Mytemp 
New PVSystem.PV29 phases=1 Bus1=107002b1f21267.2.0 kV=0.127 kVA=1.87 Pmpp=1.87 conn=wye PF = 1 %cutin = 0.00005 %cutout = 0.00005 effcurve = Myeff P-TCurve = MyPvsT Daily = MyIrrad TDaily = Mytemp 
New PVSystem.PV30 phases=1 Bus1=107002b1f21267.1.0 kV=0.127 kVA=2.95 Pmpp=2.95 conn=wye PF = 1 %cutin = 0.00005 %cutout = 0.00005 effcurve = Myeff P-TCurve = MyPvsT Daily = MyIrrad TDaily = Mytemp 
New PVSystem.PV31 phases=1 Bus1=107069b1f21940.1.0 kV=0.127 kVA=2.37 Pmpp=2.37 conn=wye PF = 1 %cutin = 0.00005 %cutout = 0.00005 effcurve = Myeff P-TCurve = MyPvsT Daily = MyIrrad TDaily = Mytemp 
New PVSystem.PV32 phases=1 Bus1=107002b1f21267.1.0 kV=0.127 kVA=2.09 Pmpp=2.09 conn=wye PF = 1 %cutin = 0.00005 %cutout = 0.00005 effcurve = Myeff P-TCurve = MyPvsT Daily = MyIrrad TDaily = Mytemp 
New PVSystem.PV33 phases=1 Bus1=106792b1f15272.2.0 kV=0.127 kVA=2.09 Pmpp=2.09 conn=wye PF = 1 %cutin = 0.00005 %cutout = 0.00005 effcurve = Myeff P-TCurve = MyPvsT Daily = MyIrrad TDaily = Mytemp 
New PVSystem.PV34 phases=3 Bus1=107069b1f21940.1.2.3.0 kV=0.22 kVA=2.24 Pmpp=2.24 conn=wye PF = 1 %cutin = 0.00005 %cutout = 0.00005 effcurve = Myeff P-TCurve = MyPvsT Daily = MyIrrad TDaily = Mytemp 
New PVSystem.PV35 phases=1 Bus1=107088b1f48094.2.0 kV=0.127 kVA=2.28 Pmpp=2.28 conn=wye PF = 1 %cutin = 0.00005 %cutout = 0.00005 effcurve = Myeff P-TCurve = MyPvsT Daily = MyIrrad TDaily = Mytemp 
New PVSystem.PV36 phases=1 Bus1=106888b1f23277.1.0 kV=0.127 kVA=2.95 Pmpp=2.95 conn=wye PF = 1 %cutin = 0.00005 %cutout = 0.00005 effcurve = Myeff P-TCurve = MyPvsT Daily = MyIrrad TDaily = Mytemp 
New PVSystem.PV37 phases=2 Bus1=107023b1f37218.1.2.0 kV=0.22 kVA=2.28 Pmpp=2.28 conn=wye PF = 1 %cutin = 0.00005 %cutout = 0.00005 effcurve = Myeff P-TCurve = MyPvsT Daily = MyIrrad TDaily = Mytemp 
New PVSystem.PV38 phases=1 Bus1=106888b1f23277.2.0 kV=0.127 kVA=1.86 Pmpp=1.86 conn=wye PF = 1 %cutin = 0.00005 %cutout = 0.00005 effcurve = Myeff P-TCurve = MyPvsT Daily = MyIrrad TDaily = Mytemp 
New PVSystem.PV39 phases=2 Bus1=600471b0f24167.1.2.0 kV=0.22 kVA=2.09 Pmpp=2.09 conn=wye PF = 1 %cutin = 0.00005 %cutout = 0.00005 effcurve = Myeff P-TCurve = MyPvsT Daily = MyIrrad TDaily = Mytemp 
New PVSystem.PV40 phases=1 Bus1=103375b1f18046.2.0 kV=0.127 kVA=1.87 Pmpp=1.87 conn=wye PF = 1 %cutin = 0.00005 %cutout = 0.00005 effcurve = Myeff P-TCurve = MyPvsT Daily = MyIrrad TDaily = Mytemp 
New PVSystem.PV41 phases=1 Bus1=106792b1f15272.1.0 kV=0.127 kVA=1.87 Pmpp=1.87 conn=wye PF = 1 %cutin = 0.00005 %cutout = 0.00005 effcurve = Myeff P-TCurve = MyPvsT Daily = MyIrrad TDaily = Mytemp 
New PVSystem.PV42 phases=1 Bus1=107071b1f13822.1.0 kV=0.127 kVA=2.37 Pmpp=2.37 conn=wye PF = 1 %cutin = 0.00005 %cutout = 0.00005 effcurve = Myeff P-TCurve = MyPvsT Daily = MyIrrad TDaily = Mytemp 
New PVSystem.PV43 phases=1 Bus1=106840b1f18466.3.0 kV=0.127 kVA=2.09 Pmpp=2.09 conn=wye PF = 1 %cutin = 0.00005 %cutout = 0.00005 effcurve = Myeff P-TCurve = MyPvsT Daily = MyIrrad TDaily = Mytemp 
New PVSystem.PV44 phases=1 Bus1=106933b1f26045.3.0 kV=0.127 kVA=2.37 Pmpp=2.37 conn=wye PF = 1 %cutin = 0.00005 %cutout = 0.00005 effcurve = Myeff P-TCurve = MyPvsT Daily = MyIrrad TDaily = Mytemp 
New PVSystem.PV45 phases=1 Bus1=106825b1f21415.1.0 kV=0.127 kVA=2.28 Pmpp=2.28 conn=wye PF = 1 %cutin = 0.00005 %cutout = 0.00005 effcurve = Myeff P-TCurve = MyPvsT Daily = MyIrrad TDaily = Mytemp 
New PVSystem.PV46 phases=1 Bus1=106888b1f23277.2.0 kV=0.127 kVA=2.95 Pmpp=2.95 conn=wye PF = 1 %cutin = 0.00005 %cutout = 0.00005 effcurve = Myeff P-TCurve = MyPvsT Daily = MyIrrad TDaily = Mytemp 
New PVSystem.PV47 phases=2 Bus1=107003b1f21555.1.2.0 kV=0.22 kVA=2.79 Pmpp=2.79 conn=wye PF = 1 %cutin = 0.00005 %cutout = 0.00005 effcurve = Myeff P-TCurve = MyPvsT Daily = MyIrrad TDaily = Mytemp 
New PVSystem.PV48 phases=1 Bus1=107002b1f21267.1.0 kV=0.127 kVA=2.28 Pmpp=2.28 conn=wye PF = 1 %cutin = 0.00005 %cutout = 0.00005 effcurve = Myeff P-TCurve = MyPvsT Daily = MyIrrad TDaily = Mytemp 
New PVSystem.PV49 phases=1 Bus1=107016b1f24982.1.0 kV=0.22 kVA=2.28 Pmpp=2.28 conn=wye PF = 1 %cutin = 0.00005 %cutout = 0.00005 effcurve = Myeff P-TCurve = MyPvsT Daily = MyIrrad TDaily = Mytemp 
New PVSystem.PV50 phases=1 Bus1=106792b1f15272.2.0 kV=0.127 kVA=2.37 Pmpp=2.37 conn=wye PF = 1 %cutin = 0.00005 %cutout = 0.00005 effcurve = Myeff P-TCurve = MyPvsT Daily = MyIrrad TDaily = Mytemp 
New PVSystem.PV51 phases=1 Bus1=107003b1f21555.1.0 kV=0.127 kVA=1.25 Pmpp=1.25 conn=wye PF = 1 %cutin = 0.00005 %cutout = 0.00005 effcurve = Myeff P-TCurve = MyPvsT Daily = MyIrrad TDaily = Mytemp 
New PVSystem.PV52 phases=2 Bus1=12428741b1f23062.1.2.0 kV=0.22 kVA=2.37 Pmpp=2.37 conn=wye PF = 1 %cutin = 0.00005 %cutout = 0.00005 effcurve = Myeff P-TCurve = MyPvsT Daily = MyIrrad TDaily = Mytemp 
New PVSystem.PV53 phases=2 Bus1=12675087b0f53190.3.1.0 kV=0.22 kVA=2.28 Pmpp=2.28 conn=wye PF = 1 %cutin = 0.00005 %cutout = 0.00005 effcurve = Myeff P-TCurve = MyPvsT Daily = MyIrrad TDaily = Mytemp 
New PVSystem.PV54 phases=1 Bus1=12428741b1f23062.1.0 kV=0.22 kVA=1.75 Pmpp=1.75 conn=wye PF = 1 %cutin = 0.00005 %cutout = 0.00005 effcurve = Myeff P-TCurve = MyPvsT Daily = MyIrrad TDaily = Mytemp 
New PVSystem.PV55 phases=1 Bus1=106933b1f26045.2.0 kV=0.127 kVA=1.75 Pmpp=1.75 conn=wye PF = 1 %cutin = 0.00005 %cutout = 0.00005 effcurve = Myeff P-TCurve = MyPvsT Daily = MyIrrad TDaily = Mytemp 
New PVSystem.PV56 phases=1 Bus1=106792b1f15272.2.0 kV=0.127 kVA=2.09 Pmpp=2.09 conn=wye PF = 1 %cutin = 0.00005 %cutout = 0.00005 effcurve = Myeff P-TCurve = MyPvsT Daily = MyIrrad TDaily = Mytemp 
New PVSystem.PV57 phases=2 Bus1=12675087b0f53190.1.2.0 kV=0.22 kVA=2.37 Pmpp=2.37 conn=wye PF = 1 %cutin = 0.00005 %cutout = 0.00005 effcurve = Myeff P-TCurve = MyPvsT Daily = MyIrrad TDaily = Mytemp 
New PVSystem.PV58 phases=1 Bus1=106980b1f19790.1.0 kV=0.127 kVA=2.95 Pmpp=2.95 conn=wye PF = 1 %cutin = 0.00005 %cutout = 0.00005 effcurve = Myeff P-TCurve = MyPvsT Daily = MyIrrad TDaily = Mytemp 
New PVSystem.PV59 phases=1 Bus1=106980b1f19790.3.0 kV=0.127 kVA=2.09 Pmpp=2.09 conn=wye PF = 1 %cutin = 0.00005 %cutout = 0.00005 effcurve = Myeff P-TCurve = MyPvsT Daily = MyIrrad TDaily = Mytemp 
New PVSystem.PV60 phases=1 Bus1=106792b1f15272.3.0 kV=0.127 kVA=2.09 Pmpp=2.09 conn=wye PF = 1 %cutin = 0.00005 %cutout = 0.00005 effcurve = Myeff P-TCurve = MyPvsT Daily = MyIrrad TDaily = Mytemp 
New PVSystem.PV61 phases=1 Bus1=106888b1f23277.2.0 kV=0.127 kVA=2.09 Pmpp=2.09 conn=wye PF = 1 %cutin = 0.00005 %cutout = 0.00005 effcurve = Myeff P-TCurve = MyPvsT Daily = MyIrrad TDaily = Mytemp 
New PVSystem.PV62 phases=2 Bus1=107069b1f21940.1.2.0 kV=0.22 kVA=2.37 Pmpp=2.37 conn=wye PF = 1 %cutin = 0.00005 %cutout = 0.00005 effcurve = Myeff P-TCurve = MyPvsT Daily = MyIrrad TDaily = Mytemp 
New PVSystem.PV63 phases=1 Bus1=107002b1f21267.1.0 kV=0.127 kVA=2.37 Pmpp=2.37 conn=wye PF = 1 %cutin = 0.00005 %cutout = 0.00005 effcurve = Myeff P-TCurve = MyPvsT Daily = MyIrrad TDaily = Mytemp 
New PVSystem.PV64 phases=1 Bus1=107036b1f16826.1.0 kV=0.127 kVA=2.95 Pmpp=2.95 conn=wye PF = 1 %cutin = 0.00005 %cutout = 0.00005 effcurve = Myeff P-TCurve = MyPvsT Daily = MyIrrad TDaily = Mytemp 
New PVSystem.PV65 phases=1 Bus1=106840b1f18466.1.0 kV=0.127 kVA=2.95 Pmpp=2.95 conn=wye PF = 1 %cutin = 0.00005 %cutout = 0.00005 effcurve = Myeff P-TCurve = MyPvsT Daily = MyIrrad TDaily = Mytemp 
New PVSystem.PV66 phases=2 Bus1=600471b0f24167.3.1.0 kV=0.22 kVA=1.48 Pmpp=1.48 conn=wye PF = 1 %cutin = 0.00005 %cutout = 0.00005 effcurve = Myeff P-TCurve = MyPvsT Daily = MyIrrad TDaily = Mytemp 
New PVSystem.PV67 phases=2 Bus1=106980b1f19790.2.3.0 kV=0.22 kVA=2.09 Pmpp=2.09 conn=wye PF = 1 %cutin = 0.00005 %cutout = 0.00005 effcurve = Myeff P-TCurve = MyPvsT Daily = MyIrrad TDaily = Mytemp 
New PVSystem.PV68 phases=1 Bus1=106933b1f26045.1.0 kV=0.127 kVA=2.28 Pmpp=2.28 conn=wye PF = 1 %cutin = 0.00005 %cutout = 0.00005 effcurve = Myeff P-TCurve = MyPvsT Daily = MyIrrad TDaily = Mytemp 
New PVSystem.PV69 phases=2 Bus1=12232201b0f48507.2.3.0 kV=0.22 kVA=2.37 Pmpp=2.37 conn=wye PF = 1 %cutin = 0.00005 %cutout = 0.00005 effcurve = Myeff P-TCurve = MyPvsT Daily = MyIrrad TDaily = Mytemp 
New PVSystem.PV70 phases=1 Bus1=107023b1f37218.1.0 kV=0.127 kVA=2.95 Pmpp=2.95 conn=wye PF = 1 %cutin = 0.00005 %cutout = 0.00005 effcurve = Myeff P-TCurve = MyPvsT Daily = MyIrrad TDaily = Mytemp 
New PVSystem.PV71 phases=1 Bus1=103375b1f18046.2.0 kV=0.127 kVA=1.87 Pmpp=1.87 conn=wye PF = 1 %cutin = 0.00005 %cutout = 0.00005 effcurve = Myeff P-TCurve = MyPvsT Daily = MyIrrad TDaily = Mytemp 
New PVSystem.PV72 phases=1 Bus1=103375b1f18046.1.0 kV=0.127 kVA=2.28 Pmpp=2.28 conn=wye PF = 1 %cutin = 0.00005 %cutout = 0.00005 effcurve = Myeff P-TCurve = MyPvsT Daily = MyIrrad TDaily = Mytemp 
New PVSystem.PV73 phases=1 Bus1=106825b1f21415.1.0 kV=0.127 kVA=1.87 Pmpp=1.87 conn=wye PF = 1 %cutin = 0.00005 %cutout = 0.00005 effcurve = Myeff P-TCurve = MyPvsT Daily = MyIrrad TDaily = Mytemp 
New PVSystem.PV74 phases=2 Bus1=12232201b0f48507.1.2.0 kV=0.22 kVA=2.37 Pmpp=2.37 conn=wye PF = 1 %cutin = 0.00005 %cutout = 0.00005 effcurve = Myeff P-TCurve = MyPvsT Daily = MyIrrad TDaily = Mytemp 
New PVSystem.PV75 phases=1 Bus1=600471b0f24167.1.0 kV=0.22 kVA=2.95 Pmpp=2.95 conn=wye PF = 1 %cutin = 0.00005 %cutout = 0.00005 effcurve = Myeff P-TCurve = MyPvsT Daily = MyIrrad TDaily = Mytemp 
New PVSystem.PV76 phases=1 Bus1=600471b0f24167.1.0 kV=0.22 kVA=2.95 Pmpp=2.95 conn=wye PF = 1 %cutin = 0.00005 %cutout = 0.00005 effcurve = Myeff P-TCurve = MyPvsT Daily = MyIrrad TDaily = Mytemp 
New PVSystem.PV77 phases=1 Bus1=106933b1f26045.3.0 kV=0.127 kVA=2.95 Pmpp=2.95 conn=wye PF = 1 %cutin = 0.00005 %cutout = 0.00005 effcurve = Myeff P-TCurve = MyPvsT Daily = MyIrrad TDaily = Mytemp 
New PVSystem.PV78 phases=1 Bus1=106746b1f58371.3.0 kV=0.127 kVA=2.24 Pmpp=2.24 conn=wye PF = 1 %cutin = 0.00005 %cutout = 0.00005 effcurve = Myeff P-TCurve = MyPvsT Daily = MyIrrad TDaily = Mytemp 
New PVSystem.PV79 phases=1 Bus1=106825b1f21415.3.0 kV=0.127 kVA=1.86 Pmpp=1.86 conn=wye PF = 1 %cutin = 0.00005 %cutout = 0.00005 effcurve = Myeff P-TCurve = MyPvsT Daily = MyIrrad TDaily = Mytemp 
New PVSystem.PV80 phases=1 Bus1=106933b1f26045.2.0 kV=0.127 kVA=2.37 Pmpp=2.37 conn=wye PF = 1 %cutin = 0.00005 %cutout = 0.00005 effcurve = Myeff P-TCurve = MyPvsT Daily = MyIrrad TDaily = Mytemp 
New PVSystem.PV81 phases=1 Bus1=106792b1f15272.3.0 kV=0.127 kVA=2.95 Pmpp=2.95 conn=wye PF = 1 %cutin = 0.00005 %cutout = 0.00005 effcurve = Myeff P-TCurve = MyPvsT Daily = MyIrrad TDaily = Mytemp 
New PVSystem.PV82 phases=1 Bus1=106840b1f18466.2.0 kV=0.127 kVA=2.95 Pmpp=2.95 conn=wye PF = 1 %cutin = 0.00005 %cutout = 0.00005 effcurve = Myeff P-TCurve = MyPvsT Daily = MyIrrad TDaily = Mytemp 
New PVSystem.PV83 phases=1 Bus1=106980b1f19790.1.0 kV=0.127 kVA=2.95 Pmpp=2.95 conn=wye PF = 1 %cutin = 0.00005 %cutout = 0.00005 effcurve = Myeff P-TCurve = MyPvsT Daily = MyIrrad TDaily = Mytemp 
New PVSystem.PV84 phases=2 Bus1=12232201b0f48507.1.2.0 kV=0.22 kVA=2.37 Pmpp=2.37 conn=wye PF = 1 %cutin = 0.00005 %cutout = 0.00005 effcurve = Myeff P-TCurve = MyPvsT Daily = MyIrrad TDaily = Mytemp 
New PVSystem.PV85 phases=1 Bus1=106840b1f18466.2.0 kV=0.127 kVA=2.37 Pmpp=2.37 conn=wye PF = 1 %cutin = 0.00005 %cutout = 0.00005 effcurve = Myeff P-TCurve = MyPvsT Daily = MyIrrad TDaily = Mytemp 
New PVSystem.PV86 phases=1 Bus1=106977b1500594.2.0 kV=0.127 kVA=2.95 Pmpp=2.95 conn=wye PF = 1 %cutin = 0.00005 %cutout = 0.00005 effcurve = Myeff P-TCurve = MyPvsT Daily = MyIrrad TDaily = Mytemp 
New PVSystem.PV87 phases=1 Bus1=103375b1f18046.3.0 kV=0.127 kVA=2.0 Pmpp=2.0 conn=wye PF = 1 %cutin = 0.00005 %cutout = 0.00005 effcurve = Myeff P-TCurve = MyPvsT Daily = MyIrrad TDaily = Mytemp 
New PVSystem.PV88 phases=2 Bus1=12428741b1f23062.1.2.0 kV=0.22 kVA=2.24 Pmpp=2.24 conn=wye PF = 1 %cutin = 0.00005 %cutout = 0.00005 effcurve = Myeff P-TCurve = MyPvsT Daily = MyIrrad TDaily = Mytemp 
New PVSystem.PV89 phases=1 Bus1=600471b0f24167.1.0 kV=0.22 kVA=2.95 Pmpp=2.95 conn=wye PF = 1 %cutin = 0.00005 %cutout = 0.00005 effcurve = Myeff P-TCurve = MyPvsT Daily = MyIrrad TDaily = Mytemp 
New PVSystem.PV90 phases=1 Bus1=106933b1f26045.2.0 kV=0.127 kVA=2.37 Pmpp=2.37 conn=wye PF = 1 %cutin = 0.00005 %cutout = 0.00005 effcurve = Myeff P-TCurve = MyPvsT Daily = MyIrrad TDaily = Mytemp 
New PVSystem.PV91 phases=2 Bus1=12998983b1f58005.1.2.0 kV=0.22 kVA=1.48 Pmpp=1.48 conn=wye PF = 1 %cutin = 0.00005 %cutout = 0.00005 effcurve = Myeff P-TCurve = MyPvsT Daily = MyIrrad TDaily = Mytemp 
New PVSystem.PV92 phases=1 Bus1=106933b1f26045.1.0 kV=0.127 kVA=2.09 Pmpp=2.09 conn=wye PF = 1 %cutin = 0.00005 %cutout = 0.00005 effcurve = Myeff P-TCurve = MyPvsT Daily = MyIrrad TDaily = Mytemp 
New PVSystem.PV93 phases=1 Bus1=107122b1f22648.1.0 kV=0.22 kVA=2.43 Pmpp=2.43 conn=wye PF = 1 %cutin = 0.00005 %cutout = 0.00005 effcurve = Myeff P-TCurve = MyPvsT Daily = MyIrrad TDaily = Mytemp 
New PVSystem.PV94 phases=1 Bus1=107023b1f37218.1.0 kV=0.127 kVA=2.95 Pmpp=2.95 conn=wye PF = 1 %cutin = 0.00005 %cutout = 0.00005 effcurve = Myeff P-TCurve = MyPvsT Daily = MyIrrad TDaily = Mytemp 
New PVSystem.PV95 phases=1 Bus1=106933b1f26045.1.0 kV=0.127 kVA=2.37 Pmpp=2.37 conn=wye PF = 1 %cutin = 0.00005 %cutout = 0.00005 effcurve = Myeff P-TCurve = MyPvsT Daily = MyIrrad TDaily = Mytemp 
New PVSystem.PV96 phases=2 Bus1=600471b0f24167.2.3.0 kV=0.22 kVA=2.95 Pmpp=2.95 conn=wye PF = 1 %cutin = 0.00005 %cutout = 0.00005 effcurve = Myeff P-TCurve = MyPvsT Daily = MyIrrad TDaily = Mytemp 
New PVSystem.PV97 phases=1 Bus1=106888b1f23277.1.0 kV=0.127 kVA=2.95 Pmpp=2.95 conn=wye PF = 1 %cutin = 0.00005 %cutout = 0.00005 effcurve = Myeff P-TCurve = MyPvsT Daily = MyIrrad TDaily = Mytemp 
New PVSystem.PV98 phases=2 Bus1=12428741b1f23062.2.3.0 kV=0.22 kVA=2.28 Pmpp=2.28 conn=wye PF = 1 %cutin = 0.00005 %cutout = 0.00005 effcurve = Myeff P-TCurve = MyPvsT Daily = MyIrrad TDaily = Mytemp 
New PVSystem.PV99 phases=1 Bus1=107002b1f21267.1.0 kV=0.127 kVA=1.87 Pmpp=1.87 conn=wye PF = 1 %cutin = 0.00005 %cutout = 0.00005 effcurve = Myeff P-TCurve = MyPvsT Daily = MyIrrad TDaily = Mytemp 
New PVSystem.PV100 phases=3 Bus1=107023b1f37218.1.2.3.0 kV=0.22 kVA=2.95 Pmpp=2.95 conn=wye PF = 1 %cutin = 0.00005 %cutout = 0.00005 effcurve = Myeff P-TCurve = MyPvsT Daily = MyIrrad TDaily = Mytemp 
New PVSystem.PV101 phases=2 Bus1=600471b0f24167.1.2.0 kV=0.22 kVA=1.87 Pmpp=1.87 conn=wye PF = 1 %cutin = 0.00005 %cutout = 0.00005 effcurve = Myeff P-TCurve = MyPvsT Daily = MyIrrad TDaily = Mytemp 
New PVSystem.PV102 phases=1 Bus1=106840b1f18466.1.0 kV=0.127 kVA=2.09 Pmpp=2.09 conn=wye PF = 1 %cutin = 0.00005 %cutout = 0.00005 effcurve = Myeff P-TCurve = MyPvsT Daily = MyIrrad TDaily = Mytemp 
New PVSystem.PV103 phases=2 Bus1=107021b1f38600.3.1.0 kV=0.22 kVA=2.95 Pmpp=2.95 conn=wye PF = 1 %cutin = 0.00005 %cutout = 0.00005 effcurve = Myeff P-TCurve = MyPvsT Daily = MyIrrad TDaily = Mytemp 
New PVSystem.PV104 phases=1 Bus1=106840b1f18466.2.0 kV=0.127 kVA=2.28 Pmpp=2.28 conn=wye PF = 1 %cutin = 0.00005 %cutout = 0.00005 effcurve = Myeff P-TCurve = MyPvsT Daily = MyIrrad TDaily = Mytemp 
New PVSystem.PV105 phases=1 Bus1=106933b1f26045.2.0 kV=0.127 kVA=2.37 Pmpp=2.37 conn=wye PF = 1 %cutin = 0.00005 %cutout = 0.00005 effcurve = Myeff P-TCurve = MyPvsT Daily = MyIrrad TDaily = Mytemp 
New PVSystem.PV106 phases=2 Bus1=106792b1f15272.2.3.0 kV=0.22 kVA=1.42 Pmpp=1.42 conn=wye PF = 1 %cutin = 0.00005 %cutout = 0.00005 effcurve = Myeff P-TCurve = MyPvsT Daily = MyIrrad TDaily = Mytemp 
New PVSystem.PV107 phases=1 Bus1=107036b1f16826.1.0 kV=0.127 kVA=2.95 Pmpp=2.95 conn=wye PF = 1 %cutin = 0.00005 %cutout = 0.00005 effcurve = Myeff P-TCurve = MyPvsT Daily = MyIrrad TDaily = Mytemp 
New PVSystem.PV108 phases=3 Bus1=107069b1f21940.1.2.3.0 kV=0.22 kVA=2.95 Pmpp=2.95 conn=wye PF = 1 %cutin = 0.00005 %cutout = 0.00005 effcurve = Myeff P-TCurve = MyPvsT Daily = MyIrrad TDaily = Mytemp 
New PVSystem.PV109 phases=2 Bus1=12232201b0f48507.1.2.0 kV=0.22 kVA=2.28 Pmpp=2.28 conn=wye PF = 1 %cutin = 0.00005 %cutout = 0.00005 effcurve = Myeff P-TCurve = MyPvsT Daily = MyIrrad TDaily = Mytemp 
New PVSystem.PV110 phases=2 Bus1=107090b1f16098.1.2.0 kV=0.22 kVA=1.48 Pmpp=1.48 conn=wye PF = 1 %cutin = 0.00005 %cutout = 0.00005 effcurve = Myeff P-TCurve = MyPvsT Daily = MyIrrad TDaily = Mytemp 
New PVSystem.PV111 phases=1 Bus1=106840b1f18466.1.0 kV=0.127 kVA=2.95 Pmpp=2.95 conn=wye PF = 1 %cutin = 0.00005 %cutout = 0.00005 effcurve = Myeff P-TCurve = MyPvsT Daily = MyIrrad TDaily = Mytemp 
New PVSystem.PV112 phases=2 Bus1=12428741b1f23062.3.1.0 kV=0.22 kVA=2.28 Pmpp=2.28 conn=wye PF = 1 %cutin = 0.00005 %cutout = 0.00005 effcurve = Myeff P-TCurve = MyPvsT Daily = MyIrrad TDaily = Mytemp 
New PVSystem.PV113 phases=2 Bus1=12232201b0f48507.3.1.0 kV=0.22 kVA=2.37 Pmpp=2.37 conn=wye PF = 1 %cutin = 0.00005 %cutout = 0.00005 effcurve = Myeff P-TCurve = MyPvsT Daily = MyIrrad TDaily = Mytemp 
New PVSystem.PV114 phases=1 Bus1=106840b1f18466.2.0 kV=0.127 kVA=2.09 Pmpp=2.09 conn=wye PF = 1 %cutin = 0.00005 %cutout = 0.00005 effcurve = Myeff P-TCurve = MyPvsT Daily = MyIrrad TDaily = Mytemp 
New PVSystem.PV115 phases=1 Bus1=106888b1f23277.1.0 kV=0.127 kVA=2.95 Pmpp=2.95 conn=wye PF = 1 %cutin = 0.00005 %cutout = 0.00005 effcurve = Myeff P-TCurve = MyPvsT Daily = MyIrrad TDaily = Mytemp 
New PVSystem.PV116 phases=1 Bus1=106933b1f26045.3.0 kV=0.127 kVA=2.28 Pmpp=2.28 conn=wye PF = 1 %cutin = 0.00005 %cutout = 0.00005 effcurve = Myeff P-TCurve = MyPvsT Daily = MyIrrad TDaily = Mytemp 
New PVSystem.PV117 phases=1 Bus1=12428741b1f23062.2.0 kV=0.127 kVA=2.24 Pmpp=2.24 conn=wye PF = 1 %cutin = 0.00005 %cutout = 0.00005 effcurve = Myeff P-TCurve = MyPvsT Daily = MyIrrad TDaily = Mytemp 
New PVSystem.PV118 phases=2 Bus1=12232201b0f48507.2.3.0 kV=0.22 kVA=2.28 Pmpp=2.28 conn=wye PF = 1 %cutin = 0.00005 %cutout = 0.00005 effcurve = Myeff P-TCurve = MyPvsT Daily = MyIrrad TDaily = Mytemp 
New PVSystem.PV119 phases=1 Bus1=107002b1f21267.3.0 kV=0.127 kVA=1.87 Pmpp=1.87 conn=wye PF = 1 %cutin = 0.00005 %cutout = 0.00005 effcurve = Myeff P-TCurve = MyPvsT Daily = MyIrrad TDaily = Mytemp 
New PVSystem.PV120 phases=1 Bus1=103375b1f18046.1.0 kV=0.127 kVA=1.87 Pmpp=1.87 conn=wye PF = 1 %cutin = 0.00005 %cutout = 0.00005 effcurve = Myeff P-TCurve = MyPvsT Daily = MyIrrad TDaily = Mytemp 
New PVSystem.PV121 phases=2 Bus1=600471b0f24167.3.1.0 kV=0.22 kVA=2.28 Pmpp=2.28 conn=wye PF = 1 %cutin = 0.00005 %cutout = 0.00005 effcurve = Myeff P-TCurve = MyPvsT Daily = MyIrrad TDaily = Mytemp 
New PVSystem.PV122 phases=1 Bus1=107002b1f21267.3.0 kV=0.127 kVA=1.87 Pmpp=1.87 conn=wye PF = 1 %cutin = 0.00005 %cutout = 0.00005 effcurve = Myeff P-TCurve = MyPvsT Daily = MyIrrad TDaily = Mytemp 
New PVSystem.PV123 phases=1 Bus1=107002b1f21267.3.0 kV=0.127 kVA=2.28 Pmpp=2.28 conn=wye PF = 1 %cutin = 0.00005 %cutout = 0.00005 effcurve = Myeff P-TCurve = MyPvsT Daily = MyIrrad TDaily = Mytemp 
New PVSystem.PV124 phases=1 Bus1=106825b1f21415.1.0 kV=0.127 kVA=2.37 Pmpp=2.37 conn=wye PF = 1 %cutin = 0.00005 %cutout = 0.00005 effcurve = Myeff P-TCurve = MyPvsT Daily = MyIrrad TDaily = Mytemp 
New PVSystem.PV125 phases=1 Bus1=106792b1f15272.3.0 kV=0.127 kVA=2.95 Pmpp=2.95 conn=wye PF = 1 %cutin = 0.00005 %cutout = 0.00005 effcurve = Myeff P-TCurve = MyPvsT Daily = MyIrrad TDaily = Mytemp 
New PVSystem.PV126 phases=2 Bus1=12232201b0f48507.1.2.0 kV=0.22 kVA=2.28 Pmpp=2.28 conn=wye PF = 1 %cutin = 0.00005 %cutout = 0.00005 effcurve = Myeff P-TCurve = MyPvsT Daily = MyIrrad TDaily = Mytemp 
New PVSystem.PV127 phases=2 Bus1=106980b1f19790.3.1.0 kV=0.22 kVA=2.24 Pmpp=2.24 conn=wye PF = 1 %cutin = 0.00005 %cutout = 0.00005 effcurve = Myeff P-TCurve = MyPvsT Daily = MyIrrad TDaily = Mytemp 
New PVSystem.PV128 phases=1 Bus1=106933b1f26045.2.0 kV=0.127 kVA=2.09 Pmpp=2.09 conn=wye PF = 1 %cutin = 0.00005 %cutout = 0.00005 effcurve = Myeff P-TCurve = MyPvsT Daily = MyIrrad TDaily = Mytemp 
New PVSystem.PV129 phases=1 Bus1=106840b1f18466.3.0 kV=0.127 kVA=2.24 Pmpp=2.24 conn=wye PF = 1 %cutin = 0.00005 %cutout = 0.00005 effcurve = Myeff P-TCurve = MyPvsT Daily = MyIrrad TDaily = Mytemp 
New PVSystem.PV130 phases=1 Bus1=106792b1f15272.3.0 kV=0.127 kVA=2.95 Pmpp=2.95 conn=wye PF = 1 %cutin = 0.00005 %cutout = 0.00005 effcurve = Myeff P-TCurve = MyPvsT Daily = MyIrrad TDaily = Mytemp 
New PVSystem.PV131 phases=1 Bus1=106825b1f21415.2.0 kV=0.127 kVA=2.95 Pmpp=2.95 conn=wye PF = 1 %cutin = 0.00005 %cutout = 0.00005 effcurve = Myeff P-TCurve = MyPvsT Daily = MyIrrad TDaily = Mytemp 
New PVSystem.PV132 phases=1 Bus1=106840b1f18466.1.0 kV=0.127 kVA=2.28 Pmpp=2.28 conn=wye PF = 1 %cutin = 0.00005 %cutout = 0.00005 effcurve = Myeff P-TCurve = MyPvsT Daily = MyIrrad TDaily = Mytemp 
New PVSystem.PV133 phases=3 Bus1=107122b1f22648.1.2.3.0 kV=0.22 kVA=1.79 Pmpp=1.79 conn=wye PF = 1 %cutin = 0.00005 %cutout = 0.00005 effcurve = Myeff P-TCurve = MyPvsT Daily = MyIrrad TDaily = Mytemp 
New PVSystem.PV134 phases=1 Bus1=107069b1f21940.2.0 kV=0.127 kVA=2.95 Pmpp=2.95 conn=wye PF = 1 %cutin = 0.00005 %cutout = 0.00005 effcurve = Myeff P-TCurve = MyPvsT Daily = MyIrrad TDaily = Mytemp 
New PVSystem.PV135 phases=2 Bus1=106825b1f21415.1.2.0 kV=0.22 kVA=1.87 Pmpp=1.87 conn=wye PF = 1 %cutin = 0.00005 %cutout = 0.00005 effcurve = Myeff P-TCurve = MyPvsT Daily = MyIrrad TDaily = Mytemp 
New PVSystem.PV136 phases=2 Bus1=12998984b1f58003.1.2.0 kV=0.22 kVA=2.24 Pmpp=2.24 conn=wye PF = 1 %cutin = 0.00005 %cutout = 0.00005 effcurve = Myeff P-TCurve = MyPvsT Daily = MyIrrad TDaily = Mytemp 
New PVSystem.PV137 phases=2 Bus1=600471b0f24167.2.3.0 kV=0.22 kVA=2.95 Pmpp=2.95 conn=wye PF = 1 %cutin = 0.00005 %cutout = 0.00005 effcurve = Myeff P-TCurve = MyPvsT Daily = MyIrrad TDaily = Mytemp 
New PVSystem.PV138 phases=2 Bus1=107088b1f48094.2.3.0 kV=0.22 kVA=1.97 Pmpp=1.97 conn=wye PF = 1 %cutin = 0.00005 %cutout = 0.00005 effcurve = Myeff P-TCurve = MyPvsT Daily = MyIrrad TDaily = Mytemp 
New PVSystem.PV139 phases=1 Bus1=106792b1f15272.2.0 kV=0.127 kVA=2.95 Pmpp=2.95 conn=wye PF = 1 %cutin = 0.00005 %cutout = 0.00005 effcurve = Myeff P-TCurve = MyPvsT Daily = MyIrrad TDaily = Mytemp 
New PVSystem.PV140 phases=1 Bus1=106980b1f19790.3.0 kV=0.127 kVA=2.09 Pmpp=2.09 conn=wye PF = 1 %cutin = 0.00005 %cutout = 0.00005 effcurve = Myeff P-TCurve = MyPvsT Daily = MyIrrad TDaily = Mytemp 
New PVSystem.PV141 phases=1 Bus1=103375b1f18046.1.0 kV=0.127 kVA=2.28 Pmpp=2.28 conn=wye PF = 1 %cutin = 0.00005 %cutout = 0.00005 effcurve = Myeff P-TCurve = MyPvsT Daily = MyIrrad TDaily = Mytemp 
New PVSystem.PV142 phases=2 Bus1=107224b1f26939.3.1.0 kV=0.22 kVA=2.28 Pmpp=2.28 conn=wye PF = 1 %cutin = 0.00005 %cutout = 0.00005 effcurve = Myeff P-TCurve = MyPvsT Daily = MyIrrad TDaily = Mytemp 
New PVSystem.PV143 phases=3 Bus1=106888b1f23277.1.2.3.0 kV=0.22 kVA=1.97 Pmpp=1.97 conn=wye PF = 1 %cutin = 0.00005 %cutout = 0.00005 effcurve = Myeff P-TCurve = MyPvsT Daily = MyIrrad TDaily = Mytemp 
New PVSystem.PV144 phases=2 Bus1=107069b1f21940.1.2.0 kV=0.22 kVA=2.09 Pmpp=2.09 conn=wye PF = 1 %cutin = 0.00005 %cutout = 0.00005 effcurve = Myeff P-TCurve = MyPvsT Daily = MyIrrad TDaily = Mytemp 
New PVSystem.PV145 phases=1 Bus1=106792b1f15272.2.0 kV=0.127 kVA=2.95 Pmpp=2.95 conn=wye PF = 1 %cutin = 0.00005 %cutout = 0.00005 effcurve = Myeff P-TCurve = MyPvsT Daily = MyIrrad TDaily = Mytemp 
New PVSystem.PV146 phases=1 Bus1=106840b1f18466.2.0 kV=0.127 kVA=1.75 Pmpp=1.75 conn=wye PF = 1 %cutin = 0.00005 %cutout = 0.00005 effcurve = Myeff P-TCurve = MyPvsT Daily = MyIrrad TDaily = Mytemp 
New PVSystem.PV147 phases=1 Bus1=106933b1f26045.1.0 kV=0.127 kVA=2.95 Pmpp=2.95 conn=wye PF = 1 %cutin = 0.00005 %cutout = 0.00005 effcurve = Myeff P-TCurve = MyPvsT Daily = MyIrrad TDaily = Mytemp 
New PVSystem.PV148 phases=2 Bus1=107224b1f26939.1.2.0 kV=0.22 kVA=2.09 Pmpp=2.09 conn=wye PF = 1 %cutin = 0.00005 %cutout = 0.00005 effcurve = Myeff P-TCurve = MyPvsT Daily = MyIrrad TDaily = Mytemp 
New PVSystem.PV149 phases=1 Bus1=106840b1f18466.1.0 kV=0.127 kVA=2.95 Pmpp=2.95 conn=wye PF = 1 %cutin = 0.00005 %cutout = 0.00005 effcurve = Myeff P-TCurve = MyPvsT Daily = MyIrrad TDaily = Mytemp 
New PVSystem.PV150 phases=1 Bus1=106792b1f15272.1.0 kV=0.127 kVA=2.09 Pmpp=2.09 conn=wye PF = 1 %cutin = 0.00005 %cutout = 0.00005 effcurve = Myeff P-TCurve = MyPvsT Daily = MyIrrad TDaily = Mytemp 
New PVSystem.PV151 phases=1 Bus1=107071b1f13822.2.0 kV=0.127 kVA=2.28 Pmpp=2.28 conn=wye PF = 1 %cutin = 0.00005 %cutout = 0.00005 effcurve = Myeff P-TCurve = MyPvsT Daily = MyIrrad TDaily = Mytemp 
New PVSystem.PV152 phases=1 Bus1=106825b1f21415.2.0 kV=0.127 kVA=2.95 Pmpp=2.95 conn=wye PF = 1 %cutin = 0.00005 %cutout = 0.00005 effcurve = Myeff P-TCurve = MyPvsT Daily = MyIrrad TDaily = Mytemp 
New PVSystem.PV153 phases=1 Bus1=106840b1f18466.2.0 kV=0.127 kVA=1.87 Pmpp=1.87 conn=wye PF = 1 %cutin = 0.00005 %cutout = 0.00005 effcurve = Myeff P-TCurve = MyPvsT Daily = MyIrrad TDaily = Mytemp 
New PVSystem.PV154 phases=1 Bus1=106840b1f18466.3.0 kV=0.127 kVA=2.95 Pmpp=2.95 conn=wye PF = 1 %cutin = 0.00005 %cutout = 0.00005 effcurve = Myeff P-TCurve = MyPvsT Daily = MyIrrad TDaily = Mytemp 
New PVSystem.PV155 phases=2 Bus1=12428741b1f23062.3.1.0 kV=0.22 kVA=2.28 Pmpp=2.28 conn=wye PF = 1 %cutin = 0.00005 %cutout = 0.00005 effcurve = Myeff P-TCurve = MyPvsT Daily = MyIrrad TDaily = Mytemp 
New PVSystem.PV156 phases=1 Bus1=106840b1f18466.1.0 kV=0.127 kVA=1.16 Pmpp=1.16 conn=wye PF = 1 %cutin = 0.00005 %cutout = 0.00005 effcurve = Myeff P-TCurve = MyPvsT Daily = MyIrrad TDaily = Mytemp 
New PVSystem.PV157 phases=1 Bus1=107002b1f21267.1.0 kV=0.127 kVA=1.16 Pmpp=1.16 conn=wye PF = 1 %cutin = 0.00005 %cutout = 0.00005 effcurve = Myeff P-TCurve = MyPvsT Daily = MyIrrad TDaily = Mytemp 
New PVSystem.PV158 phases=2 Bus1=107224b1f26939.3.1.0 kV=0.22 kVA=2.09 Pmpp=2.09 conn=wye PF = 1 %cutin = 0.00005 %cutout = 0.00005 effcurve = Myeff P-TCurve = MyPvsT Daily = MyIrrad TDaily = Mytemp 
New PVSystem.PV159 phases=2 Bus1=600471b0f24167.1.2.0 kV=0.22 kVA=2.37 Pmpp=2.37 conn=wye PF = 1 %cutin = 0.00005 %cutout = 0.00005 effcurve = Myeff P-TCurve = MyPvsT Daily = MyIrrad TDaily = Mytemp 
New PVSystem.PV160 phases=1 Bus1=106840b1f18466.1.0 kV=0.127 kVA=2.09 Pmpp=2.09 conn=wye PF = 1 %cutin = 0.00005 %cutout = 0.00005 effcurve = Myeff P-TCurve = MyPvsT Daily = MyIrrad TDaily = Mytemp 
New PVSystem.PV161 phases=2 Bus1=107224b1f26939.1.2.0 kV=0.22 kVA=2.28 Pmpp=2.28 conn=wye PF = 1 %cutin = 0.00005 %cutout = 0.00005 effcurve = Myeff P-TCurve = MyPvsT Daily = MyIrrad TDaily = Mytemp 
New PVSystem.PV162 phases=1 Bus1=106840b1f18466.3.0 kV=0.127 kVA=2.09 Pmpp=2.09 conn=wye PF = 1 %cutin = 0.00005 %cutout = 0.00005 effcurve = Myeff P-TCurve = MyPvsT Daily = MyIrrad TDaily = Mytemp 
New PVSystem.PV163 phases=3 Bus1=107023b1f37218.1.2.3.0 kV=0.22 kVA=2.95 Pmpp=2.95 conn=wye PF = 1 %cutin = 0.00005 %cutout = 0.00005 effcurve = Myeff P-TCurve = MyPvsT Daily = MyIrrad TDaily = Mytemp 
New PVSystem.PV164 phases=2 Bus1=12428741b1f23062.2.3.0 kV=0.22 kVA=2.28 Pmpp=2.28 conn=wye PF = 1 %cutin = 0.00005 %cutout = 0.00005 effcurve = Myeff P-TCurve = MyPvsT Daily = MyIrrad TDaily = Mytemp 
New PVSystem.PV165 phases=1 Bus1=107002b1f21267.1.0 kV=0.127 kVA=1.87 Pmpp=1.87 conn=wye PF = 1 %cutin = 0.00005 %cutout = 0.00005 effcurve = Myeff P-TCurve = MyPvsT Daily = MyIrrad TDaily = Mytemp 
New PVSystem.PV166 phases=1 Bus1=106888b1f23277.1.0 kV=0.127 kVA=2.95 Pmpp=2.95 conn=wye PF = 1 %cutin = 0.00005 %cutout = 0.00005 effcurve = Myeff P-TCurve = MyPvsT Daily = MyIrrad TDaily = Mytemp 
New PVSystem.PV167 phases=1 Bus1=106825b1f21415.3.0 kV=0.127 kVA=2.09 Pmpp=2.09 conn=wye PF = 1 %cutin = 0.00005 %cutout = 0.00005 effcurve = Myeff P-TCurve = MyPvsT Daily = MyIrrad TDaily = Mytemp 
New PVSystem.PV168 phases=1 Bus1=106933b1f26045.3.0 kV=0.127 kVA=2.09 Pmpp=2.09 conn=wye PF = 1 %cutin = 0.00005 %cutout = 0.00005 effcurve = Myeff P-TCurve = MyPvsT Daily = MyIrrad TDaily = Mytemp 
New PVSystem.PV169 phases=2 Bus1=12428741b1f23062.3.1.0 kV=0.22 kVA=2.28 Pmpp=2.28 conn=wye PF = 1 %cutin = 0.00005 %cutout = 0.00005 effcurve = Myeff P-TCurve = MyPvsT Daily = MyIrrad TDaily = Mytemp 
New PVSystem.PV170 phases=1 Bus1=106933b1f26045.1.0 kV=0.127 kVA=2.28 Pmpp=2.28 conn=wye PF = 1 %cutin = 0.00005 %cutout = 0.00005 effcurve = Myeff P-TCurve = MyPvsT Daily = MyIrrad TDaily = Mytemp 
New PVSystem.PV171 phases=1 Bus1=106933b1f26045.3.0 kV=0.127 kVA=2.37 Pmpp=2.37 conn=wye PF = 1 %cutin = 0.00005 %cutout = 0.00005 effcurve = Myeff P-TCurve = MyPvsT Daily = MyIrrad TDaily = Mytemp 
New PVSystem.PV172 phases=1 Bus1=106840b1f18466.2.0 kV=0.127 kVA=1.87 Pmpp=1.87 conn=wye PF = 1 %cutin = 0.00005 %cutout = 0.00005 effcurve = Myeff P-TCurve = MyPvsT Daily = MyIrrad TDaily = Mytemp 
New PVSystem.PV173 phases=1 Bus1=106933b1f26045.1.0 kV=0.127 kVA=2.95 Pmpp=2.95 conn=wye PF = 1 %cutin = 0.00005 %cutout = 0.00005 effcurve = Myeff P-TCurve = MyPvsT Daily = MyIrrad TDaily = Mytemp 
New PVSystem.PV174 phases=1 Bus1=106792b1f15272.2.0 kV=0.127 kVA=2.09 Pmpp=2.09 conn=wye PF = 1 %cutin = 0.00005 %cutout = 0.00005 effcurve = Myeff P-TCurve = MyPvsT Daily = MyIrrad TDaily = Mytemp 
New PVSystem.PV175 phases=2 Bus1=600471b0f24167.1.2.0 kV=0.127 kVA=2.95 Pmpp=2.95 conn=wye PF = 1 %cutin = 0.00005 %cutout = 0.00005 effcurve = Myeff P-TCurve = MyPvsT Daily = MyIrrad TDaily = Mytemp 
New PVSystem.PV176 phases=1 Bus1=600471b0f24167.2.0 kV=0.127 kVA=2.0 Pmpp=2.0 conn=wye PF = 1 %cutin = 0.00005 %cutout = 0.00005 effcurve = Myeff P-TCurve = MyPvsT Daily = MyIrrad TDaily = Mytemp 
New PVSystem.PV177 phases=1 Bus1=107002b1f21267.3.0 kV=0.127 kVA=2.0 Pmpp=2.0 conn=wye PF = 1 %cutin = 0.00005 %cutout = 0.00005 effcurve = Myeff P-TCurve = MyPvsT Daily = MyIrrad TDaily = Mytemp 
New PVSystem.PV178 phases=2 Bus1=12232201b0f48507.3.1.0 kV=0.22 kVA=2.09 Pmpp=2.09 conn=wye PF = 1 %cutin = 0.00005 %cutout = 0.00005 effcurve = Myeff P-TCurve = MyPvsT Daily = MyIrrad TDaily = Mytemp 
New PVSystem.PV179 phases=1 Bus1=107071b1f13822.3.0 kV=0.127 kVA=2.95 Pmpp=2.95 conn=wye PF = 1 %cutin = 0.00005 %cutout = 0.00005 effcurve = Myeff P-TCurve = MyPvsT Daily = MyIrrad TDaily = Mytemp 
New PVSystem.PV180 phases=2 Bus1=12232201b0f48507.3.1.0 kV=0.22 kVA=2.28 Pmpp=2.28 conn=wye PF = 1 %cutin = 0.00005 %cutout = 0.00005 effcurve = Myeff P-TCurve = MyPvsT Daily = MyIrrad TDaily = Mytemp 
New PVSystem.PV181 phases=2 Bus1=107021b1f38600.1.2.0 kV=0.22 kVA=2.24 Pmpp=2.24 conn=wye PF = 1 %cutin = 0.00005 %cutout = 0.00005 effcurve = Myeff P-TCurve = MyPvsT Daily = MyIrrad TDaily = Mytemp 
New PVSystem.PV182 phases=1 Bus1=106840b1f18466.2.0 kV=0.127 kVA=2.37 Pmpp=2.37 conn=wye PF = 1 %cutin = 0.00005 %cutout = 0.00005 effcurve = Myeff P-TCurve = MyPvsT Daily = MyIrrad TDaily = Mytemp 
New PVSystem.PV183 phases=1 Bus1=107002b1f21267.1.0 kV=0.127 kVA=2.24 Pmpp=2.24 conn=wye PF = 1 %cutin = 0.00005 %cutout = 0.00005 effcurve = Myeff P-TCurve = MyPvsT Daily = MyIrrad TDaily = Mytemp 
New PVSystem.PV184 phases=2 Bus1=12232201b0f48507.1.2.0 kV=0.22 kVA=2.37 Pmpp=2.37 conn=wye PF = 1 %cutin = 0.00005 %cutout = 0.00005 effcurve = Myeff P-TCurve = MyPvsT Daily = MyIrrad TDaily = Mytemp 
New PVSystem.PV185 phases=2 Bus1=12428741b1f23062.3.1.0 kV=0.22 kVA=2.37 Pmpp=2.37 conn=wye PF = 1 %cutin = 0.00005 %cutout = 0.00005 effcurve = Myeff P-TCurve = MyPvsT Daily = MyIrrad TDaily = Mytemp 
New PVSystem.PV186 phases=2 Bus1=600471b0f24167.1.2.0 kV=0.22 kVA=2.28 Pmpp=2.28 conn=wye PF = 1 %cutin = 0.00005 %cutout = 0.00005 effcurve = Myeff P-TCurve = MyPvsT Daily = MyIrrad TDaily = Mytemp 
New PVSystem.PV187 phases=2 Bus1=107224b1f26939.2.3.0 kV=0.22 kVA=2.37 Pmpp=2.37 conn=wye PF = 1 %cutin = 0.00005 %cutout = 0.00005 effcurve = Myeff P-TCurve = MyPvsT Daily = MyIrrad TDaily = Mytemp 
New PVSystem.PV188 phases=1 Bus1=106792b1f15272.3.0 kV=0.127 kVA=2.43 Pmpp=2.43 conn=wye PF = 1 %cutin = 0.00005 %cutout = 0.00005 effcurve = Myeff P-TCurve = MyPvsT Daily = MyIrrad TDaily = Mytemp 
New PVSystem.PV189 phases=3 Bus1=107224b1f26939.1.2.3.0 kV=0.22 kVA=2.95 Pmpp=2.95 conn=wye PF = 1 %cutin = 0.00005 %cutout = 0.00005 effcurve = Myeff P-TCurve = MyPvsT Daily = MyIrrad TDaily = Mytemp 
New PVSystem.PV190 phases=1 Bus1=106840b1f18466.3.0 kV=0.127 kVA=2.24 Pmpp=2.24 conn=wye PF = 1 %cutin = 0.00005 %cutout = 0.00005 effcurve = Myeff P-TCurve = MyPvsT Daily = MyIrrad TDaily = Mytemp 
New PVSystem.PV191 phases=1 Bus1=103375b1f18046.1.0 kV=0.127 kVA=1.87 Pmpp=1.87 conn=wye PF = 1 %cutin = 0.00005 %cutout = 0.00005 effcurve = Myeff P-TCurve = MyPvsT Daily = MyIrrad TDaily = Mytemp 
New PVSystem.PV192 phases=1 Bus1=106933b1f26045.1.0 kV=0.127 kVA=2.28 Pmpp=2.28 conn=wye PF = 1 %cutin = 0.00005 %cutout = 0.00005 effcurve = Myeff P-TCurve = MyPvsT Daily = MyIrrad TDaily = Mytemp 
New PVSystem.PV193 phases=2 Bus1=12232201b0f48507.1.2.0 kV=0.22 kVA=2.37 Pmpp=2.37 conn=wye PF = 1 %cutin = 0.00005 %cutout = 0.00005 effcurve = Myeff P-TCurve = MyPvsT Daily = MyIrrad TDaily = Mytemp 
New PVSystem.PV194 phases=1 Bus1=106746b1f58371.1.0 kV=0.127 kVA=2.37 Pmpp=2.37 conn=wye PF = 1 %cutin = 0.00005 %cutout = 0.00005 effcurve = Myeff P-TCurve = MyPvsT Daily = MyIrrad TDaily = Mytemp 
New PVSystem.PV195 phases=2 Bus1=107016b1f24982.1.2.0 kV=0.22 kVA=1.42 Pmpp=1.42 conn=wye PF = 1 %cutin = 0.00005 %cutout = 0.00005 effcurve = Myeff P-TCurve = MyPvsT Daily = MyIrrad TDaily = Mytemp 
New PVSystem.PV196 phases=2 Bus1=12428741b1f23062.3.1.0 kV=0.22 kVA=2.28 Pmpp=2.28 conn=wye PF = 1 %cutin = 0.00005 %cutout = 0.00005 effcurve = Myeff P-TCurve = MyPvsT Daily = MyIrrad TDaily = Mytemp 
New PVSystem.PV197 phases=2 Bus1=106977b1500594.3.1.0 kV=0.22 kVA=1.97 Pmpp=1.97 conn=wye PF = 1 %cutin = 0.00005 %cutout = 0.00005 effcurve = Myeff P-TCurve = MyPvsT Daily = MyIrrad TDaily = Mytemp 
New PVSystem.PV198 phases=1 Bus1=106933b1f26045.3.0 kV=0.127 kVA=2.37 Pmpp=2.37 conn=wye PF = 1 %cutin = 0.00005 %cutout = 0.00005 effcurve = Myeff P-TCurve = MyPvsT Daily = MyIrrad TDaily = Mytemp 
New PVSystem.PV199 phases=3 Bus1=107036b1f16826.1.2.3.0 kV=0.22 kVA=2.79 Pmpp=2.79 conn=wye PF = 1 %cutin = 0.00005 %cutout = 0.00005 effcurve = Myeff P-TCurve = MyPvsT Daily = MyIrrad TDaily = Mytemp 
...
